<configuration>
  <input>
    <net-file value="grid.net.xml"/>
    <route-files value="grid.rou.xml"/>
    <additional-files value="rerouter.add.xml"/>
  </input>
  <time>
    <begin value="0"/>
    <end value="500"/>
    <step-length value="0.1"/>
  </time>
</configuration>
